Version 4
SHEET 1 880 680
WIRE 160 48 128 48
WIRE 304 48 240 48
WIRE 304 80 304 48
WIRE 128 128 128 48
WIRE 304 176 304 144
WIRE 128 272 128 208
WIRE 160 272 128 272
WIRE 304 272 304 240
WIRE 304 272 160 272
WIRE 160 288 160 272
FLAG 160 288 0
SYMBOL res 256 32 R90
WINDOW 0 0 56 VBottom 2
WINDOW 3 32 56 VTop 2
SYMATTR InstName R1
SYMATTR Value 220
SYMBOL zener 288 80 R0
SYMATTR InstName D3
SYMATTR Value BZX384B2V4
SYMBOL zener 320 240 R180
WINDOW 0 -37 30 Left 2
WINDOW 3 -136 2 Left 2
SYMATTR InstName D4
SYMATTR Value BZX384B2V4
SYMBOL voltage 128 112 R0
WINDOW 0 -31 12 Left 2
WINDOW 3 -154 101 Left 2
WINDOW 123 0 0 Left 0
WINDOW 39 0 0 Left 0
SYMATTR InstName V1
SYMATTR Value SINE(0 5 50)
TEXT -60 240 Left 2 !.dc V1 0 3 0.001
