Version 4
SHEET 1 1588 680
WIRE 1056 80 1040 80
WIRE 1152 80 1056 80
WIRE 752 96 592 96
WIRE 912 96 752 96
WIRE 944 96 912 96
WIRE 592 144 592 96
WIRE 752 144 752 96
WIRE 272 224 32 224
WIRE 272 240 272 224
WIRE 592 240 592 208
WIRE 592 240 432 240
WIRE 912 240 912 96
WIRE 1152 240 1152 80
WIRE 752 320 752 208
WIRE 752 320 432 320
WIRE 592 336 592 240
WIRE 752 336 752 320
WIRE 32 352 32 304
WIRE 272 352 272 320
WIRE 272 352 32 352
WIRE 32 368 32 352
WIRE 592 464 592 400
WIRE 624 464 592 464
WIRE 752 464 752 400
WIRE 752 464 624 464
WIRE 912 464 912 304
WIRE 912 464 752 464
WIRE 1056 464 1056 112
WIRE 1056 464 912 464
WIRE 1152 464 1152 320
WIRE 1152 464 1056 464
WIRE 624 544 624 464
FLAG 32 368 0
FLAG 624 544 0
SYMBOL voltage 32 208 R0
WINDOW 123 0 0 Left 0
WINDOW 39 0 0 Left 0
SYMATTR InstName V1
SYMATTR Value SINE(0 220 50)
SYMBOL res 1136 224 R0
SYMATTR InstName R1
SYMATTR Value 1k
SYMBOL ind2 256 224 R0
SYMATTR InstName L1
SYMATTR Value 15
SYMATTR Type ind
SYMATTR SpiceLine Rser=1
SYMBOL ind2 448 336 R180
WINDOW 0 36 80 Left 2
WINDOW 3 36 40 Left 2
SYMATTR InstName L2
SYMATTR Value 100m
SYMATTR Type ind
SYMATTR SpiceLine Rser=1m
SYMBOL diode 608 208 R180
WINDOW 0 24 64 Left 2
WINDOW 3 24 0 Left 2
SYMATTR InstName D1
SYMATTR Value 1N4148
SYMBOL diode 768 208 R180
WINDOW 0 24 64 Left 2
WINDOW 3 24 0 Left 2
SYMATTR InstName D2
SYMATTR Value 1N4148
SYMBOL diode 608 400 R180
WINDOW 0 24 64 Left 2
WINDOW 3 24 0 Left 2
SYMATTR InstName D3
SYMATTR Value 1N4148
SYMBOL diode 768 400 R180
WINDOW 0 24 64 Left 2
WINDOW 3 24 0 Left 2
SYMATTR InstName D4
SYMATTR Value 1N4148
SYMBOL cap 896 240 R0
SYMATTR InstName C1
SYMATTR Value 0.5m
SYMBOL AutoGenerated\\7805 992 96 R0
SYMATTR InstName U2
TEXT 0 392 Left 2 !.tran 0 1 0 0.1m
TEXT 288 216 Left 2 !K1 L1 L2 0.999
